20

    S            1.362627529400    -1.205901970476    -1.178228930076
    O            0.240044911361    -1.762482475203    -0.355203071153
    C            2.498464501429    -2.574931695558    -1.423832550405
    H            2.741891842677    -3.017505689516    -0.465865052886
    H            3.393074396829    -2.225656796785    -1.926127912490
    H            1.995925929598    -3.306840087430    -2.042082474016
    C            2.366444795673    -0.212450430214    -0.074573244409
    H            1.767392111126     0.643929391894     0.204016539274
    H            3.261340414987     0.107619501443    -0.596216298047
    H            2.619802674901    -0.797656726116     0.801386780561
    S           -1.362627529400     1.205901970476     1.178228930076
    O           -0.240044911361     1.762482475203     0.355203071153
    C           -2.498464501429     2.574931695558     1.423832550405
    H           -2.741891842677     3.017505689516     0.465865052886
    H           -3.393074396829     2.225656796785     1.926127912490
    H           -1.995925929598     3.306840087430     2.042082474016
    C           -2.366444795673     0.212450430214     0.074573244409
    H           -1.767392111126    -0.643929391894    -0.204016539274
    H           -3.261340414987    -0.107619501443     0.596216298047
    H           -2.619802674901     0.797656726116    -0.801386780561
