6
opt: rhf/6-31+G(d,p) 5D
    O           -0.015312872781    -0.004278128672    -1.452475710874
    H            0.528035164315    -0.647922445102    -1.878370428322
    H            0.142855620803     0.822845816998    -1.878766271369
    O            0.026493987541     0.007213982959     1.535361868724
    H           -0.016460837973    -0.004172566150     0.588789084314
    H           -0.831882352317    -0.217344943790     1.852884141284
